data/2bus/case2.py
# Copyright (c) 1996-2015 PSERC. All rights reserved.
# Use of this source code is governed by a BSD-style
# license that can be found in the LICENSE file.

"""Power flow data for 2 bus test case.
"""

from numpy import array

def case2():
    """Power flow data for 2 bus test case.
    """
    ppc = {"version": '2'}

    ##-----  Power Flow Data  -----##
    ## system MVA base
    ppc["baseMVA"] = 100.0

    ## bus data
    # bus_i type Pd Qd Gs Bs area Vm Va baseKV zone Vmax Vmin
    ppc["bus"] = array([
        [1, 3, 0, 0, 0, 0, 1, 1, 0, 230, 1, 1.1, 0.9],
        [2, 1, 200, 100, 0, 0, 1, 1, 0, 230, 1, 1.1, 0.9]
    ])

    ## generator data
    # bus, Pg, Qg, Qmax, Qmin, Vg, mBase, status, Pmax, Pmin, Pc1, Pc2,
    # Qc1min, Qc1max, Qc2min, Qc2max, ramp_agc, ramp_10, ramp_30, ramp_q, apf
    ppc["gen"] = array([
        [1, 0,	0, -500, -500, 1,100, 1, 0, 0, 0, 0, 0, 0, 0, 0, 0, 0,0,0,0]
    ])

    ## branch data
    # fbus, tbus, r, x, b, rateA, rateB, rateC, ratio, angle, status, angmin, angmax
    ppc["branch"] = array([
        [1, 2,  0.01,  0.1, 0, 400, 400, 400, 0, 0, 1, -360, 360]
    ])

    ##-----  OPF Data  -----##
    ## generator cost data
    # 1 startup shutdown n x1 y1 ... xn yn
    # 2 startup shutdown n c(n-1) ... c0
    ppc["gencost"] = array([
        [2, 0, 0, 3, 0.0430293, 20, 0],
    ])

    return ppc
